=
     RDKit          3D

 14 15  0  0  0  0  0  0  0  0999 V2000
   20.1180  -33.1620  -32.2210 C   0  0  0  0  0  0  0  0  0  0  0  0
   21.1990  -32.6260  -31.4120 C   0  0  0  0  0  0  0  0  0  0  0  0
   18.9020  -33.9280  -31.8340 C   0  0  0  0  0  0  0  0  0  0  0  0
   20.2440  -32.8320  -33.6280 C   0  0  0  0  0  0  0  0  0  0  0  0
   21.3330  -32.1160  -34.1610 C   0  0  0  0  0  0  0  0  0  0  0  0
   19.2440  -33.1570  -34.5270 N   0  0  0  0  0  0  0  0  0  0  0  0
   22.2320  -31.8750  -31.9330 C   0  0  0  0  0  0  0  0  0  0  0  0
   21.1930  -32.9570  -30.1420 O   0  0  0  0  0  0  0  0  0  0  0  0
   22.2790  -31.6550  -33.3710 C   0  0  0  0  0  0  0  0  0  0  0  0
   18.1740  -33.8840  -34.0030 C   0  0  0  0  0  0  0  0  0  0  0  0
   18.0160  -34.1850  -32.8130 N   0  0  0  0  0  0  0  0  0  0  0  0
   18.7830  -34.3600  -30.6480 N   0  0  0  0  0  0  0  0  0  0  0  0
   23.9140  -30.1140  -31.9970 C   0  0  0  0  0  0  0  0  0  0  0  0
   23.1970  -31.0720  -30.7420 S   0  0  0  0  0  0  0  0  0  0  0  0
  1  4  1  0
  1  3  1  0
  1  2  2  0
  2  7  1  0
  2  8  1  0
  3 11  2  0
  3 12  1  0
  4  6  1  0
  4  5  2  0
  5  9  1  0
  6 10  2  0
  7  9  2  0
  7 14  1  0
 10 11  1  0
 13 14  1  0
M  END
$$$$
