=
     RDKit          3D

 14 15  0  0  0  0  0  0  0  0999 V2000
    8.2530  -33.9350  -33.1360 C   0  0  0  0  0  0  0  0  0  0  0  0
    6.9520  -33.2950  -33.2270 C   0  0  0  0  0  0  0  0  0  0  0  0
    9.4310  -33.6270  -32.2800 C   0  0  0  0  0  0  0  0  0  0  0  0
    8.3730  -35.1000  -33.9930 C   0  0  0  0  0  0  0  0  0  0  0  0
    7.3550  -35.5280  -34.8650 C   0  0  0  0  0  0  0  0  0  0  0  0
    9.4990  -35.9030  -33.9460 N   0  0  0  0  0  0  0  0  0  0  0  0
    5.9380  -33.7550  -34.0410 C   0  0  0  0  0  0  0  0  0  0  0  0
    6.8020  -32.1860  -32.5410 O   0  0  0  0  0  0  0  0  0  0  0  0
    6.1970  -34.9030  -34.8970 C   0  0  0  0  0  0  0  0  0  0  0  0
   10.5170  -35.4680  -33.0960 C   0  0  0  0  0  0  0  0  0  0  0  0
   10.4620  -34.4880  -32.3430 N   0  0  0  0  0  0  0  0  0  0  0  0
    9.4490  -32.5580  -31.5990 N   0  0  0  0  0  0  0  0  0  0  0  0
    3.9140  -33.4060  -35.3510 C   0  0  0  0  0  0  0  0  0  0  0  0
    4.3940  -33.0410  -33.7250 S   0  0  0  0  0  0  0  0  0  0  0  0
  1  4  1  0
  1  2  2  0
  1  3  1  0
  2  7  1  0
  2  8  1  0
  3 11  2  0
  3 12  1  0
  4  5  2  0
  4  6  1  0
  5  9  1  0
  6 10  2  0
  7  9  2  0
  7 14  1  0
 10 11  1  0
 13 14  1  0
M  END
$$$$
